MODEL 1
REMARK VINA RESULT:      -8.6      0.000      0.000
REMARK  0 active torsions:
REMARK  status: ('A' for Active; 'I' for Inactive)
REMARK       I    between atoms: N1_6  and  C5_13 
REMARK       I    between atoms: N2_7  and  C7_15 
REMARK       I    between atoms: N3_8  and  C6_14 
REMARK       I    between atoms: N3_8  and  C15_23 
REMARK       I    between atoms: C1_9  and  C6_14 
ROOT
HETATM    1  F1  UNL     1     102.371 125.436  83.815  1.00  0.00    -0.204 F 
HETATM    2  O1  UNL     1     108.080 128.841  85.778  1.00  0.00    -0.295 OA
HETATM    3  O2  UNL     1     102.062 122.804  80.019  1.00  0.00    -0.388 OA
HETATM    4  O3  UNL     1     107.249 129.760  83.710  1.00  0.00    -0.238 OA
HETATM    5  O4  UNL     1     108.416 130.935  87.155  1.00  0.00    -0.274 OA
HETATM    6  N1  UNL     1     106.234 127.962  84.851  1.00  0.00    -0.291 N 
HETATM    7  N2  UNL     1     103.114 125.072  81.112  1.00  0.00    -0.374 N 
HETATM    8  N3  UNL     1     107.286 129.442  88.559  1.00  0.00    -0.359 N 
HETATM    9  C1  UNL     1     107.595 127.884  86.669  1.00  0.00     0.170 C 
HETATM   10  C2  UNL     1     106.122 127.753  86.313  1.00  0.00     0.168 C 
HETATM   11  C3  UNL     1     103.735 124.445  79.928  1.00  0.00     0.149 C 
HETATM   12  C4  UNL     1     101.686 124.883  81.173  1.00  0.00     0.149 C 
HETATM   13  C5  UNL     1     105.483 127.251  83.883  1.00  0.00     0.042 A 
HETATM   14  C6  UNL     1     107.846 128.234  88.082  1.00  0.00     0.156 C 
HETATM   15  C7  UNL     1     103.916 125.781  82.023  1.00  0.00     0.069 A 
HETATM   16  C8  UNL     1     103.425 122.945  80.167  1.00  0.00     0.187 C 
HETATM   17  C9  UNL     1     101.311 123.426  81.011  1.00  0.00     0.187 C 
HETATM   18  C10 UNL     1     107.213 128.960  84.676  1.00  0.00     0.368 C 
HETATM   19  C11 UNL     1     104.273 126.671  84.242  1.00  0.00     0.074 A 
HETATM   20  C12 UNL     1     105.895 127.091  82.599  1.00  0.00     0.032 A 
HETATM   21  C13 UNL     1     103.511 125.955  83.334  1.00  0.00     0.145 A 
HETATM   22  C14 UNL     1     105.115 126.364  81.687  1.00  0.00     0.035 A 
HETATM   23  C15 UNL     1     107.603 130.723  88.066  1.00  0.00     0.213 C 
HETATM   24  C16 UNL     1     106.932 131.925  88.665  1.00  0.00     0.117 C 
HETATM   25  H1  UNL     1     106.568 129.406  89.352  1.00  0.00     0.162 HD
ENDROOT
TORSDOF 4
ENDMDL
MODEL 2
REMARK VINA RESULT:      -8.3      1.891      2.348
REMARK  0 active torsions:
REMARK  status: ('A' for Active; 'I' for Inactive)
REMARK       I    between atoms: N1_6  and  C5_13 
REMARK       I    between atoms: N2_7  and  C7_15 
REMARK       I    between atoms: N3_8  and  C6_14 
REMARK       I    between atoms: N3_8  and  C15_23 
REMARK       I    between atoms: C1_9  and  C6_14 
ROOT
HETATM    1  F1  UNL     1     103.849 126.444  84.941  1.00  0.00    -0.204 F 
HETATM    2  O1  UNL     1     109.879 129.402  86.645  1.00  0.00    -0.295 OA
HETATM    3  O2  UNL     1     102.691 125.127  80.657  1.00  0.00    -0.388 OA
HETATM    4  O3  UNL     1     108.624 130.873  85.205  1.00  0.00    -0.238 OA
HETATM    5  O4  UNL     1     110.528 130.973  88.518  1.00  0.00    -0.274 OA
HETATM    6  N1  UNL     1     107.867 128.748  85.896  1.00  0.00    -0.291 N 
HETATM    7  N2  UNL     1     103.978 126.996  82.172  1.00  0.00    -0.374 N 
HETATM    8  N3  UNL     1     109.719 129.048  89.573  1.00  0.00    -0.359 N 
HETATM    9  C1  UNL     1     109.593 128.186  87.263  1.00  0.00     0.170 C 
HETATM   10  C2  UNL     1     108.076 128.083  87.203  1.00  0.00     0.168 C 
HETATM   11  C3  UNL     1     104.318 126.813  80.747  1.00  0.00     0.149 C 
HETATM   12  C4  UNL     1     102.596 126.709  82.468  1.00  0.00     0.149 C 
HETATM   13  C5  UNL     1     106.916 128.333  84.931  1.00  0.00     0.042 A 
HETATM   14  C6  UNL     1     110.151 128.088  88.627  1.00  0.00     0.156 C 
HETATM   15  C7  UNL     1     104.966 127.430  83.072  1.00  0.00     0.069 A 
HETATM   16  C8  UNL     1     104.055 125.297  80.552  1.00  0.00     0.187 C 
HETATM   17  C9  UNL     1     102.181 125.357  81.930  1.00  0.00     0.187 C 
HETATM   18  C10 UNL     1     108.794 129.809  85.848  1.00  0.00     0.368 C 
HETATM   19  C11 UNL     1     105.808 127.596  85.331  1.00  0.00     0.074 A 
HETATM   20  C12 UNL     1     107.036 128.611  83.607  1.00  0.00     0.032 A 
HETATM   21  C13 UNL     1     104.860 127.157  84.424  1.00  0.00     0.145 A 
HETATM   22  C14 UNL     1     106.067 128.162  82.697  1.00  0.00     0.035 A 
HETATM   23  C15 UNL     1     109.933 130.436  89.462  1.00  0.00     0.213 C 
HETATM   24  C16 UNL     1     109.420 131.344  90.542  1.00  0.00     0.117 C 
HETATM   25  H1  UNL     1     109.192 128.719  90.445  1.00  0.00     0.162 HD
ENDROOT
TORSDOF 4
ENDMDL
MODEL 3
REMARK VINA RESULT:      -8.1     12.929     15.433
REMARK  0 active torsions:
REMARK  status: ('A' for Active; 'I' for Inactive)
REMARK       I    between atoms: N1_6  and  C5_13 
REMARK       I    between atoms: N2_7  and  C7_15 
REMARK       I    between atoms: N3_8  and  C6_14 
REMARK       I    between atoms: N3_8  and  C15_23 
REMARK       I    between atoms: C1_9  and  C6_14 
ROOT
HETATM    1  F1  UNL     1     109.547 136.064  96.776  1.00  0.00    -0.204 F 
HETATM    2  O1  UNL     1     113.328 133.243  91.699  1.00  0.00    -0.295 OA
HETATM    3  O2  UNL     1     108.202 133.827 100.599  1.00  0.00    -0.388 OA
HETATM    4  O3  UNL     1     111.169 132.175  91.802  1.00  0.00    -0.238 OA
HETATM    5  O4  UNL     1     113.510 133.763  89.231  1.00  0.00    -0.274 OA
HETATM    6  N1  UNL     1     111.845 133.914  93.245  1.00  0.00    -0.291 N 
HETATM    7  N2  UNL     1     108.654 133.636  97.914  1.00  0.00    -0.374 N 
HETATM    8  N3  UNL     1     114.133 135.733  90.329  1.00  0.00    -0.359 N 
HETATM    9  C1  UNL     1     113.892 134.338  92.352  1.00  0.00     0.170 C 
HETATM   10  C2  UNL     1     112.699 135.084  92.931  1.00  0.00     0.168 C 
HETATM   11  C3  UNL     1     108.662 132.432  98.770  1.00  0.00     0.149 C 
HETATM   12  C4  UNL     1     107.758 134.663  98.386  1.00  0.00     0.149 C 
HETATM   13  C5  UNL     1     111.045 133.799  94.408  1.00  0.00     0.042 A 
HETATM   14  C6  UNL     1     114.745 135.158  91.468  1.00  0.00     0.156 C 
HETATM   15  C7  UNL     1     109.459 133.675  96.763  1.00  0.00     0.069 A 
HETATM   16  C8  UNL     1     109.193 133.002 100.110  1.00  0.00     0.187 C 
HETATM   17  C9  UNL     1     107.992 134.978  99.847  1.00  0.00     0.187 C 
HETATM   18  C10 UNL     1     112.030 133.004  92.185  1.00  0.00     0.368 C 
HETATM   19  C11 UNL     1     110.634 134.946  95.076  1.00  0.00     0.074 A 
HETATM   20  C12 UNL     1     110.657 132.604  94.924  1.00  0.00     0.032 A 
HETATM   21  C13 UNL     1     109.862 134.883  96.223  1.00  0.00     0.145 A 
HETATM   22  C14 UNL     1     109.873 132.553  96.087  1.00  0.00     0.035 A 
HETATM   23  C15 UNL     1     113.550 135.000  89.277  1.00  0.00     0.213 C 
HETATM   24  C16 UNL     1     112.933 135.738  88.124  1.00  0.00     0.117 C 
HETATM   25  H1  UNL     1     114.100 136.798  90.237  1.00  0.00     0.162 HD
ENDROOT
TORSDOF 4
ENDMDL
MODEL 4
REMARK VINA RESULT:      -8.0      2.327      8.337
REMARK  0 active torsions:
REMARK  status: ('A' for Active; 'I' for Inactive)
REMARK       I    between atoms: N1_6  and  C5_13 
REMARK       I    between atoms: N2_7  and  C7_15 
REMARK       I    between atoms: N3_8  and  C6_14 
REMARK       I    between atoms: N3_8  and  C15_23 
REMARK       I    between atoms: C1_9  and  C6_14 
ROOT
HETATM    1  F1  UNL     1     106.019 127.655  87.822  1.00  0.00    -0.204 F 
HETATM    2  O1  UNL     1     104.098 127.067  81.189  1.00  0.00    -0.295 OA
HETATM    3  O2  UNL     1     109.436 130.390  89.330  1.00  0.00    -0.388 OA
HETATM    4  O3  UNL     1     106.330 126.201  81.475  1.00  0.00    -0.238 OA
HETATM    5  O4  UNL     1     102.995 125.190  79.903  1.00  0.00    -0.274 OA
HETATM    6  N1  UNL     1     105.038 127.109  83.227  1.00  0.00    -0.291 N 
HETATM    7  N2  UNL     1     108.582 128.742  87.330  1.00  0.00    -0.374 N 
HETATM    8  N3  UNL     1     101.494 125.737  81.613  1.00  0.00    -0.359 N 
HETATM    9  C1  UNL     1     103.126 127.532  82.073  1.00  0.00     0.170 C 
HETATM   10  C2  UNL     1     103.574 127.010  83.431  1.00  0.00     0.168 C 
HETATM   11  C3  UNL     1     109.618 129.763  87.078  1.00  0.00     0.149 C 
HETATM   12  C4  UNL     1     108.607 128.227  88.677  1.00  0.00     0.149 C 
HETATM   13  C5  UNL     1     105.956 127.527  84.222  1.00  0.00     0.042 A 
HETATM   14  C6  UNL     1     101.758 127.125  81.692  1.00  0.00     0.156 C 
HETATM   15  C7  UNL     1     107.716 128.359  86.292  1.00  0.00     0.069 A 
HETATM   16  C8  UNL     1     109.202 130.884  88.065  1.00  0.00     0.187 C 
HETATM   17  C9  UNL     1     108.599 129.342  89.699  1.00  0.00     0.187 C 
HETATM   18  C10 UNL     1     105.269 126.729  81.890  1.00  0.00     0.368 C 
HETATM   19  C11 UNL     1     105.617 127.407  85.564  1.00  0.00     0.074 A 
HETATM   20  C12 UNL     1     107.171 128.060  83.930  1.00  0.00     0.032 A 
HETATM   21  C13 UNL     1     106.476 127.813  86.570  1.00  0.00     0.145 A 
HETATM   22  C14 UNL     1     108.033 128.467  84.959  1.00  0.00     0.035 A 
HETATM   23  C15 UNL     1     102.130 124.850  80.722  1.00  0.00     0.213 C 
HETATM   24  C16 UNL     1     101.754 123.397  80.743  1.00  0.00     0.117 C 
HETATM   25  H1  UNL     1     100.762 125.308  82.265  1.00  0.00     0.162 HD
ENDROOT
TORSDOF 4
ENDMDL
MODEL 5
REMARK VINA RESULT:      -8.0     40.524     41.638
REMARK  0 active torsions:
REMARK  status: ('A' for Active; 'I' for Inactive)
REMARK       I    between atoms: N1_6  and  C5_13 
REMARK       I    between atoms: N2_7  and  C7_15 
REMARK       I    between atoms: N3_8  and  C6_14 
REMARK       I    between atoms: N3_8  and  C15_23 
REMARK       I    between atoms: C1_9  and  C6_14 
ROOT
HETATM    1  F1  UNL     1      81.157 118.831 118.364  1.00  0.00    -0.204 F 
HETATM    2  O1  UNL     1      78.726 122.344 112.907  1.00  0.00    -0.295 OA
HETATM    3  O2  UNL     1      81.986 114.276 118.394  1.00  0.00    -0.388 OA
HETATM    4  O3  UNL     1      77.055 120.795 113.695  1.00  0.00    -0.238 OA
HETATM    5  O4  UNL     1      77.384 124.479 112.726  1.00  0.00    -0.274 OA
HETATM    6  N1  UNL     1      79.189 121.034 114.670  1.00  0.00    -0.291 N 
HETATM    7  N2  UNL     1      80.348 116.265 117.495  1.00  0.00    -0.374 N 
HETATM    8  N3  UNL     1      79.353 125.075 113.841  1.00  0.00    -0.359 N 
HETATM    9  C1  UNL     1      79.978 122.731 113.382  1.00  0.00     0.170 C 
HETATM   10  C2  UNL     1      79.989 122.270 114.832  1.00  0.00     0.168 C 
HETATM   11  C3  UNL     1      80.412 114.965 116.798  1.00  0.00     0.149 C 
HETATM   12  C4  UNL     1      80.583 116.161 118.914  1.00  0.00     0.149 C 
HETATM   13  C5  UNL     1      79.454 119.817 115.346  1.00  0.00     0.042 A 
HETATM   14  C6  UNL     1      80.240 124.174 113.205  1.00  0.00     0.156 C 
HETATM   15  C7  UNL     1      80.061 117.431 116.766  1.00  0.00     0.069 A 
HETATM   16  C8  UNL     1      81.884 114.546 117.046  1.00  0.00     0.187 C 
HETATM   17  C9  UNL     1      81.850 115.391 119.214  1.00  0.00     0.187 C 
HETATM   18  C10 UNL     1      78.184 121.342 113.732  1.00  0.00     0.368 C 
HETATM   19  C11 UNL     1      80.162 119.836 116.542  1.00  0.00     0.074 A 
HETATM   20  C12 UNL     1      79.057 118.607 114.875  1.00  0.00     0.032 A 
HETATM   21  C13 UNL     1      80.456 118.672 117.231  1.00  0.00     0.145 A 
HETATM   22  C14 UNL     1      79.360 117.435 115.583  1.00  0.00     0.035 A 
HETATM   23  C15 UNL     1      77.975 125.173 113.564  1.00  0.00     0.213 C 
HETATM   24  C16 UNL     1      77.147 126.176 114.315  1.00  0.00     0.117 C 
HETATM   25  H1  UNL     1      79.733 125.740 114.588  1.00  0.00     0.162 HD
ENDROOT
TORSDOF 4
ENDMDL
MODEL 6
REMARK VINA RESULT:      -8.0      2.174      3.087
REMARK  0 active torsions:
REMARK  status: ('A' for Active; 'I' for Inactive)
REMARK       I    between atoms: N1_6  and  C5_13 
REMARK       I    between atoms: N2_7  and  C7_15 
REMARK       I    between atoms: N3_8  and  C6_14 
REMARK       I    between atoms: N3_8  and  C15_23 
REMARK       I    between atoms: C1_9  and  C6_14 
ROOT
HETATM    1  F1  UNL     1     105.875 127.168  81.983  1.00  0.00    -0.204 F 
HETATM    2  O1  UNL     1     106.732 128.594  88.711  1.00  0.00    -0.295 OA
HETATM    3  O2  UNL     1     102.050 125.301  80.163  1.00  0.00    -0.388 OA
HETATM    4  O3  UNL     1     106.558 126.210  88.395  1.00  0.00    -0.238 OA
HETATM    5  O4  UNL     1     108.797 128.756  90.160  1.00  0.00    -0.274 OA
HETATM    6  N1  UNL     1     106.440 127.781  86.639  1.00  0.00    -0.291 N 
HETATM    7  N2  UNL     1     103.747 125.335  82.300  1.00  0.00    -0.374 N 
HETATM    8  N3  UNL     1     109.090 130.357  88.479  1.00  0.00    -0.359 N 
HETATM    9  C1  UNL     1     106.805 129.677  87.837  1.00  0.00     0.170 C 
HETATM   10  C2  UNL     1     107.182 129.056  86.500  1.00  0.00     0.168 C 
HETATM   11  C3  UNL     1     102.360 124.847  82.443  1.00  0.00     0.149 C 
HETATM   12  C4  UNL     1     104.301 125.096  80.990  1.00  0.00     0.149 C 
HETATM   13  C5  UNL     1     105.742 127.144  85.583  1.00  0.00     0.042 A 
HETATM   14  C6  UNL     1     107.737 130.727  88.297  1.00  0.00     0.156 C 
HETATM   15  C7  UNL     1     104.388 125.939  83.395  1.00  0.00     0.069 A 
HETATM   16  C8  UNL     1     101.611 125.718  81.402  1.00  0.00     0.187 C 
HETATM   17  C9  UNL     1     103.382 125.598  79.898  1.00  0.00     0.187 C 
HETATM   18  C10 UNL     1     106.578 127.397  87.988  1.00  0.00     0.368 C 
HETATM   19  C11 UNL     1     106.100 127.406  84.266  1.00  0.00     0.074 A 
HETATM   20  C12 UNL     1     104.713 126.283  85.791  1.00  0.00     0.032 A 
HETATM   21  C13 UNL     1     105.438 126.818  83.202  1.00  0.00     0.145 A 
HETATM   22  C14 UNL     1     104.051 125.692  84.704  1.00  0.00     0.035 A 
HETATM   23  C15 UNL     1     109.541 129.391  89.400  1.00  0.00     0.213 C 
HETATM   24  C16 UNL     1     111.010 129.095  89.489  1.00  0.00     0.117 C 
HETATM   25  H1  UNL     1     109.844 130.833  87.886  1.00  0.00     0.162 HD
ENDROOT
TORSDOF 4
ENDMDL
MODEL 7
REMARK VINA RESULT:      -7.9      2.506      8.510
REMARK  0 active torsions:
REMARK  status: ('A' for Active; 'I' for Inactive)
REMARK       I    between atoms: N1_6  and  C5_13 
REMARK       I    between atoms: N2_7  and  C7_15 
REMARK       I    between atoms: N3_8  and  C6_14 
REMARK       I    between atoms: N3_8  and  C15_23 
REMARK       I    between atoms: C1_9  and  C6_14 
ROOT
HETATM    1  F1  UNL     1     107.328 130.453  85.185  1.00  0.00    -0.204 F 
HETATM    2  O1  UNL     1     103.850 124.983  82.732  1.00  0.00    -0.295 OA
HETATM    3  O2  UNL     1     109.903 130.415  89.031  1.00  0.00    -0.388 OA
HETATM    4  O3  UNL     1     102.914 125.669  84.845  1.00  0.00    -0.238 OA
HETATM    5  O4  UNL     1     101.774 124.796  81.302  1.00  0.00    -0.274 OA
HETATM    6  N1  UNL     1     104.748 126.733  83.813  1.00  0.00    -0.291 N 
HETATM    7  N2  UNL     1     107.634 129.495  87.826  1.00  0.00    -0.374 N 
HETATM    8  N3  UNL     1     103.309 126.003  80.013  1.00  0.00    -0.359 N 
HETATM    9  C1  UNL     1     104.830 125.516  81.896  1.00  0.00     0.170 C 
HETATM   10  C2  UNL     1     104.983 126.955  82.367  1.00  0.00     0.168 C 
HETATM   11  C3  UNL     1     108.230 128.772  88.968  1.00  0.00     0.149 C 
HETATM   12  C4  UNL     1     107.851 130.920  87.880  1.00  0.00     0.149 C 
HETATM   13  C5  UNL     1     105.458 127.392  84.847  1.00  0.00     0.042 A 
HETATM   14  C6  UNL     1     104.499 125.383  80.463  1.00  0.00     0.156 C 
HETATM   15  C7  UNL     1     106.926 128.781  86.845  1.00  0.00     0.069 A 
HETATM   16  C8  UNL     1     109.740 129.069  88.775  1.00  0.00     0.187 C 
HETATM   17  C9  UNL     1     109.312 131.252  88.093  1.00  0.00     0.187 C 
HETATM   18  C10 UNL     1     103.730 125.763  83.896  1.00  0.00     0.368 C 
HETATM   19  C11 UNL     1     106.066 128.615  84.592  1.00  0.00     0.074 A 
HETATM   20  C12 UNL     1     105.589 126.879  86.097  1.00  0.00     0.032 A 
HETATM   21  C13 UNL     1     106.780 129.290  85.567  1.00  0.00     0.145 A 
HETATM   22  C14 UNL     1     106.315 127.572  87.078  1.00  0.00     0.035 A 
HETATM   23  C15 UNL     1     102.015 125.673  80.461  1.00  0.00     0.213 C 
HETATM   24  C16 UNL     1     100.836 126.413  79.898  1.00  0.00     0.117 C 
HETATM   25  H1  UNL     1     103.372 126.779  79.279  1.00  0.00     0.162 HD
ENDROOT
TORSDOF 4
ENDMDL
MODEL 8
REMARK VINA RESULT:      -7.9      3.062      4.370
REMARK  0 active torsions:
REMARK  status: ('A' for Active; 'I' for Inactive)
REMARK       I    between atoms: N1_6  and  C5_13 
REMARK       I    between atoms: N2_7  and  C7_15 
REMARK       I    between atoms: N3_8  and  C6_14 
REMARK       I    between atoms: N3_8  and  C15_23 
REMARK       I    between atoms: C1_9  and  C6_14 
ROOT
HETATM    1  F1  UNL     1     107.997 128.200  82.438  1.00  0.00    -0.204 F 
HETATM    2  O1  UNL     1     108.102 129.329  89.275  1.00  0.00    -0.295 OA
HETATM    3  O2  UNL     1     104.145 127.673  79.925  1.00  0.00    -0.388 OA
HETATM    4  O3  UNL     1     107.222 127.130  88.822  1.00  0.00    -0.238 OA
HETATM    5  O4  UNL     1     109.828 128.818  91.052  1.00  0.00    -0.274 OA
HETATM    6  N1  UNL     1     107.923 128.637  87.148  1.00  0.00    -0.291 N 
HETATM    7  N2  UNL     1     105.368 127.169  82.312  1.00  0.00    -0.374 N 
HETATM    8  N3  UNL     1     110.908 130.219  89.520  1.00  0.00    -0.359 N 
HETATM    9  C1  UNL     1     108.672 130.320  88.478  1.00  0.00     0.170 C 
HETATM   10  C2  UNL     1     109.050 129.597  87.194  1.00  0.00     0.168 C 
HETATM   11  C3  UNL     1     103.896 127.164  82.201  1.00  0.00     0.149 C 
HETATM   12  C4  UNL     1     106.031 126.750  81.102  1.00  0.00     0.149 C 
HETATM   13  C5  UNL     1     107.248 128.255  85.962  1.00  0.00     0.042 A 
HETATM   14  C6  UNL     1     109.799 131.011  89.136  1.00  0.00     0.156 C 
HETATM   15  C7  UNL     1     105.973 127.540  83.525  1.00  0.00     0.069 A 
HETATM   16  C8  UNL     1     103.660 128.223  81.093  1.00  0.00     0.187 C 
HETATM   17  C9  UNL     1     105.526 127.515  79.898  1.00  0.00     0.187 C 
HETATM   18  C10 UNL     1     107.695 128.242  88.481  1.00  0.00     0.368 C 
HETATM   19  C11 UNL     1     107.891 128.373  84.736  1.00  0.00     0.074 A 
HETATM   20  C12 UNL     1     105.976 127.779  85.956  1.00  0.00     0.032 A 
HETATM   21  C13 UNL     1     107.268 128.024  83.551  1.00  0.00     0.145 A 
HETATM   22  C14 UNL     1     105.354 127.429  84.748  1.00  0.00     0.035 A 
HETATM   23  C15 UNL     1     110.856 129.168  90.456  1.00  0.00     0.213 C 
HETATM   24  C16 UNL     1     112.111 128.407  90.772  1.00  0.00     0.117 C 
HETATM   25  H1  UNL     1     111.864 130.417  89.083  1.00  0.00     0.162 HD
ENDROOT
TORSDOF 4
ENDMDL
MODEL 9
REMARK VINA RESULT:      -7.8     30.375     31.661
REMARK  0 active torsions:
REMARK  status: ('A' for Active; 'I' for Inactive)
REMARK       I    between atoms: N1_6  and  C5_13 
REMARK       I    between atoms: N2_7  and  C7_15 
REMARK       I    between atoms: N3_8  and  C6_14 
REMARK       I    between atoms: N3_8  and  C15_23 
REMARK       I    between atoms: C1_9  and  C6_14 
ROOT
HETATM    1  F1  UNL     1      88.462 143.639 104.738  1.00  0.00    -0.204 F 
HETATM    2  O1  UNL     1      84.854 137.824 105.833  1.00  0.00    -0.295 OA
HETATM    3  O2  UNL     1      87.598 146.662 101.340  1.00  0.00    -0.388 OA
HETATM    4  O3  UNL     1      86.024 137.678 103.730  1.00  0.00    -0.238 OA
HETATM    5  O4  UNL     1      85.474 135.620 106.904  1.00  0.00    -0.274 OA
HETATM    6  N1  UNL     1      86.122 139.550 105.161  1.00  0.00    -0.291 N 
HETATM    7  N2  UNL     1      87.658 144.030 102.056  1.00  0.00    -0.374 N 
HETATM    8  N3  UNL     1      85.809 137.234 108.564  1.00  0.00    -0.359 N 
HETATM    9  C1  UNL     1      84.853 138.755 106.870  1.00  0.00     0.170 C 
HETATM   10  C2  UNL     1      86.117 139.571 106.642  1.00  0.00     0.168 C 
HETATM   11  C3  UNL     1      86.833 144.486 100.920  1.00  0.00     0.149 C 
HETATM   12  C4  UNL     1      88.851 144.817 102.244  1.00  0.00     0.149 C 
HETATM   13  C5  UNL     1      86.485 140.653 104.348  1.00  0.00     0.042 A 
HETATM   14  C6  UNL     1      84.773 138.128 108.205  1.00  0.00     0.156 C 
HETATM   15  C7  UNL     1      87.249 142.916 102.809  1.00  0.00     0.069 A 
HETATM   16  C8  UNL     1      86.439 145.916 101.370  1.00  0.00     0.187 C 
HETATM   17  C9  UNL     1      88.539 146.297 102.296  1.00  0.00     0.187 C 
HETATM   18  C10 UNL     1      85.691 138.261 104.790  1.00  0.00     0.368 C 
HETATM   19  C11 UNL     1      87.307 141.647 104.865  1.00  0.00     0.074 A 
HETATM   20  C12 UNL     1      86.056 140.800 103.068  1.00  0.00     0.032 A 
HETATM   21  C13 UNL     1      87.677 142.748 104.113  1.00  0.00     0.145 A 
HETATM   22  C14 UNL     1      86.438 141.921 102.316  1.00  0.00     0.035 A 
HETATM   23  C15 UNL     1      86.100 136.032 107.891  1.00  0.00     0.213 C 
HETATM   24  C16 UNL     1      87.231 135.174 108.379  1.00  0.00     0.117 C 
HETATM   25  H1  UNL     1      86.429 137.466 109.405  1.00  0.00     0.162 HD
ENDROOT
TORSDOF 4
ENDMDL
