MODEL 1
REMARK VINA RESULT:      -8.9      0.000      0.000
REMARK  0 active torsions:
REMARK  status: ('A' for Active; 'I' for Inactive)
REMARK       I    between atoms: N1_6  and  C5_13 
REMARK       I    between atoms: N2_7  and  C7_15 
REMARK       I    between atoms: N3_8  and  C6_14 
REMARK       I    between atoms: N3_8  and  C15_23 
REMARK       I    between atoms: C1_9  and  C6_14 
ROOT
HETATM    1  F1  UNL     1     106.417 125.253  87.560  1.00  0.00    -0.204 F 
HETATM    2  O1  UNL     1     103.780 124.021  81.270  1.00  0.00    -0.295 OA
HETATM    3  O2  UNL     1     108.122 129.331  88.937  1.00  0.00    -0.388 OA
HETATM    4  O3  UNL     1     106.139 124.490  81.092  1.00  0.00    -0.238 OA
HETATM    5  O4  UNL     1     103.587 121.906  79.898  1.00  0.00    -0.274 OA
HETATM    6  N1  UNL     1     104.952 124.473  83.131  1.00  0.00    -0.291 N 
HETATM    7  N2  UNL     1     107.869 127.576  86.863  1.00  0.00    -0.374 N 
HETATM    8  N3  UNL     1     102.407 121.475  81.872  1.00  0.00    -0.359 N 
HETATM    9  C1  UNL     1     102.914 123.845  82.347  1.00  0.00     0.170 C 
HETATM   10  C2  UNL     1     103.834 123.588  83.532  1.00  0.00     0.168 C 
HETATM   11  C3  UNL     1     108.142 129.006  86.615  1.00  0.00     0.149 C 
HETATM   12  C4  UNL     1     108.434 127.096  88.100  1.00  0.00     0.149 C 
HETATM   13  C5  UNL     1     105.697 125.275  84.030  1.00  0.00     0.042 A 
HETATM   14  C6  UNL     1     101.916 122.780  82.116  1.00  0.00     0.156 C 
HETATM   15  C7  UNL     1     107.140 126.833  85.919  1.00  0.00     0.069 A 
HETATM   16  C8  UNL     1     107.412 129.677  87.807  1.00  0.00     0.187 C 
HETATM   17  C9  UNL     1     108.053 127.981  89.266  1.00  0.00     0.187 C 
HETATM   18  C10 UNL     1     105.070 124.340  81.733  1.00  0.00     0.368 C 
HETATM   19  C11 UNL     1     105.753 124.930  85.375  1.00  0.00     0.074 A 
HETATM   20  C12 UNL     1     106.364 126.393  83.645  1.00  0.00     0.032 A 
HETATM   21  C13 UNL     1     106.457 125.691  86.293  1.00  0.00     0.145 A 
HETATM   22  C14 UNL     1     107.075 127.156  84.584  1.00  0.00     0.035 A 
HETATM   23  C15 UNL     1     103.216 121.116  80.776  1.00  0.00     0.213 C 
HETATM   24  C16 UNL     1     103.668 119.691  80.637  1.00  0.00     0.117 C 
HETATM   25  H1  UNL     1     102.159 120.689  82.554  1.00  0.00     0.162 HD
ENDROOT
TORSDOF 4
ENDMDL
MODEL 2
REMARK VINA RESULT:      -8.1     19.834     23.177
REMARK  0 active torsions:
REMARK  status: ('A' for Active; 'I' for Inactive)
REMARK       I    between atoms: N1_6  and  C5_13 
REMARK       I    between atoms: N2_7  and  C7_15 
REMARK       I    between atoms: N3_8  and  C6_14 
REMARK       I    between atoms: N3_8  and  C15_23 
REMARK       I    between atoms: C1_9  and  C6_14 
ROOT
HETATM    1  F1  UNL     1     109.987 129.927 109.272  1.00  0.00    -0.204 F 
HETATM    2  O1  UNL     1     110.701 129.956 102.378  1.00  0.00    -0.295 OA
HETATM    3  O2  UNL     1     109.578 126.105 111.851  1.00  0.00    -0.388 OA
HETATM    4  O3  UNL     1     108.526 129.102 102.973  1.00  0.00    -0.238 OA
HETATM    5  O4  UNL     1     110.100 131.669 100.618  1.00  0.00    -0.274 OA
HETATM    6  N1  UNL     1     110.137 129.803 104.546  1.00  0.00    -0.291 N 
HETATM    7  N2  UNL     1     108.941 127.310 109.487  1.00  0.00    -0.374 N 
HETATM    8  N3  UNL     1     111.601 132.750 102.051  1.00  0.00    -0.359 N 
HETATM    9  C1  UNL     1     111.744 130.523 103.108  1.00  0.00     0.170 C 
HETATM   10  C2  UNL     1     111.103 130.921 104.430  1.00  0.00     0.168 C 
HETATM   11  C3  UNL     1     108.929 125.839 109.613  1.00  0.00     0.149 C 
HETATM   12  C4  UNL     1     108.602 127.988 110.713  1.00  0.00     0.149 C 
HETATM   13  C5  UNL     1     109.821 129.144 105.759  1.00  0.00     0.042 A 
HETATM   14  C6  UNL     1     112.404 131.638 102.398  1.00  0.00     0.156 C 
HETATM   15  C7  UNL     1     109.244 127.899 108.248  1.00  0.00     0.069 A 
HETATM   16  C8  UNL     1     110.051 125.603 110.657  1.00  0.00     0.187 C 
HETATM   17  C9  UNL     1     109.434 127.488 111.874  1.00  0.00     0.187 C 
HETATM   18  C10 UNL     1     109.660 129.567 103.241  1.00  0.00     0.368 C 
HETATM   19  C11 UNL     1     110.019 129.798 106.969  1.00  0.00     0.074 A 
HETATM   20  C12 UNL     1     109.336 127.876 105.807  1.00  0.00     0.032 A 
HETATM   21  C13 UNL     1     109.737 129.189 108.180  1.00  0.00     0.145 A 
HETATM   22  C14 UNL     1     109.053 127.270 107.040  1.00  0.00     0.035 A 
HETATM   23  C15 UNL     1     110.494 132.700 101.182  1.00  0.00     0.213 C 
HETATM   24  C16 UNL     1     109.728 133.959 100.899  1.00  0.00     0.117 C 
HETATM   25  H1  UNL     1     111.833 133.709 102.466  1.00  0.00     0.162 HD
ENDROOT
TORSDOF 4
ENDMDL
MODEL 3
REMARK VINA RESULT:      -8.0     24.640     25.838
REMARK  0 active torsions:
REMARK  status: ('A' for Active; 'I' for Inactive)
REMARK       I    between atoms: N1_6  and  C5_13 
REMARK       I    between atoms: N2_7  and  C7_15 
REMARK       I    between atoms: N3_8  and  C6_14 
REMARK       I    between atoms: N3_8  and  C15_23 
REMARK       I    between atoms: C1_9  and  C6_14 
ROOT
HETATM    1  F1  UNL     1      90.843 115.709 103.843  1.00  0.00    -0.204 F 
HETATM    2  O1  UNL     1      89.314 113.784  97.364  1.00  0.00    -0.295 OA
HETATM    3  O2  UNL     1      88.551 114.298 107.609  1.00  0.00    -0.388 OA
HETATM    4  O3  UNL     1      87.513 115.103  98.272  1.00  0.00    -0.238 OA
HETATM    5  O4  UNL     1      89.680 114.909  95.129  1.00  0.00    -0.274 OA
HETATM    6  N1  UNL     1      89.480 114.570  99.459  1.00  0.00    -0.291 N 
HETATM    7  N2  UNL     1      88.350 115.032 104.989  1.00  0.00    -0.374 N 
HETATM    8  N3  UNL     1      91.814 114.658  96.055  1.00  0.00    -0.359 N 
HETATM    9  C1  UNL     1      90.587 113.447  97.823  1.00  0.00     0.170 C 
HETATM   10  C2  UNL     1      90.860 114.448  98.936  1.00  0.00     0.168 C 
HETATM   11  C3  UNL     1      87.307 114.200 105.624  1.00  0.00     0.149 C 
HETATM   12  C4  UNL     1      88.988 115.942 105.907  1.00  0.00     0.149 C 
HETATM   13  C5  UNL     1      89.154 114.673 100.834  1.00  0.00     0.042 A 
HETATM   14  C6  UNL     1      91.603 113.444  96.751  1.00  0.00     0.156 C 
HETATM   15  C7  UNL     1      88.608 114.892 103.615  1.00  0.00     0.069 A 
HETATM   16  C8  UNL     1      88.135 113.392 106.657  1.00  0.00     0.187 C 
HETATM   17  C9  UNL     1      89.475 115.229 107.149  1.00  0.00     0.187 C 
HETATM   18  C10 UNL     1      88.634 114.543  98.333  1.00  0.00     0.368 C 
HETATM   19  C11 UNL     1      90.103 115.146 101.732  1.00  0.00     0.074 A 
HETATM   20  C12 UNL     1      87.943 114.317 101.336  1.00  0.00     0.032 A 
HETATM   21  C13 UNL     1      89.835 115.252 103.086  1.00  0.00     0.145 A 
HETATM   22  C14 UNL     1      87.683 114.429 102.710  1.00  0.00     0.035 A 
HETATM   23  C15 UNL     1      90.838 115.320  95.285  1.00  0.00     0.213 C 
HETATM   24  C16 UNL     1      91.197 116.605  94.597  1.00  0.00     0.117 C 
HETATM   25  H1  UNL     1      92.776 115.124  96.101  1.00  0.00     0.162 HD
ENDROOT
TORSDOF 4
ENDMDL
MODEL 4
REMARK VINA RESULT:      -8.0     23.020     24.117
REMARK  0 active torsions:
REMARK  status: ('A' for Active; 'I' for Inactive)
REMARK       I    between atoms: N1_6  and  C5_13 
REMARK       I    between atoms: N2_7  and  C7_15 
REMARK       I    between atoms: N3_8  and  C6_14 
REMARK       I    between atoms: N3_8  and  C15_23 
REMARK       I    between atoms: C1_9  and  C6_14 
ROOT
HETATM    1  F1  UNL     1      93.047 116.493 102.031  1.00  0.00    -0.204 F 
HETATM    2  O1  UNL     1      89.140 114.117  96.823  1.00  0.00    -0.295 OA
HETATM    3  O2  UNL     1      92.599 115.194 106.451  1.00  0.00    -0.388 OA
HETATM    4  O3  UNL     1      87.780 115.397  98.349  1.00  0.00    -0.238 OA
HETATM    5  O4  UNL     1      88.481 115.127  94.601  1.00  0.00    -0.274 OA
HETATM    6  N1  UNL     1      90.093 115.033  98.638  1.00  0.00    -0.291 N 
HETATM    7  N2  UNL     1      91.293 115.761 104.123  1.00  0.00    -0.374 N 
HETATM    8  N3  UNL     1      90.818 115.036  94.573  1.00  0.00    -0.359 N 
HETATM    9  C1  UNL     1      90.508 113.872  96.729  1.00  0.00     0.170 C 
HETATM   10  C2  UNL     1      91.143 114.949  97.596  1.00  0.00     0.168 C 
HETATM   11  C3  UNL     1      90.662 114.918 105.158  1.00  0.00     0.149 C 
HETATM   12  C4  UNL     1      92.186 116.755 104.667  1.00  0.00     0.149 C 
HETATM   13  C5  UNL     1      90.351 115.200 100.021  1.00  0.00     0.042 A 
HETATM   14  C6  UNL     1      90.995 113.856  95.334  1.00  0.00     0.156 C 
HETATM   15  C7  UNL     1      90.976 115.554 102.770  1.00  0.00     0.069 A 
HETATM   16  C8  UNL     1      91.893 114.214 105.785  1.00  0.00     0.187 C 
HETATM   17  C9  UNL     1      93.187 116.141 105.621  1.00  0.00     0.187 C 
HETATM   18  C10 UNL     1      88.864 114.898  97.961  1.00  0.00     0.368 C 
HETATM   19  C11 UNL     1      91.549 115.771 100.432  1.00  0.00     0.074 A 
HETATM   20  C12 UNL     1      89.479 114.814 100.988  1.00  0.00     0.032 A 
HETATM   21  C13 UNL     1      91.851 115.943 101.772  1.00  0.00     0.145 A 
HETATM   22  C14 UNL     1      89.796 114.994 102.342  1.00  0.00     0.035 A 
HETATM   23  C15 UNL     1      89.569 115.603  94.252  1.00  0.00     0.213 C 
HETATM   24  C16 UNL     1      89.526 116.862  93.435  1.00  0.00     0.117 C 
HETATM   25  H1  UNL     1      91.680 115.551  94.203  1.00  0.00     0.162 HD
ENDROOT
TORSDOF 4
ENDMDL
MODEL 5
REMARK VINA RESULT:      -7.7     31.150     32.113
REMARK  0 active torsions:
REMARK  status: ('A' for Active; 'I' for Inactive)
REMARK       I    between atoms: N1_6  and  C5_13 
REMARK       I    between atoms: N2_7  and  C7_15 
REMARK       I    between atoms: N3_8  and  C6_14 
REMARK       I    between atoms: N3_8  and  C15_23 
REMARK       I    between atoms: C1_9  and  C6_14 
ROOT
HETATM    1  F1  UNL     1      88.125 141.940 106.261  1.00  0.00    -0.204 F 
HETATM    2  O1  UNL     1      85.347 135.599 106.579  1.00  0.00    -0.295 OA
HETATM    3  O2  UNL     1      86.951 145.166 103.157  1.00  0.00    -0.388 OA
HETATM    4  O3  UNL     1      86.594 135.845 104.530  1.00  0.00    -0.238 OA
HETATM    5  O4  UNL     1      86.240 133.398 107.446  1.00  0.00    -0.274 OA
HETATM    6  N1  UNL     1      86.378 137.546 106.150  1.00  0.00    -0.291 N 
HETATM    7  N2  UNL     1      87.361 142.505 103.599  1.00  0.00    -0.374 N 
HETATM    8  N3  UNL     1      86.288 134.852 109.277  1.00  0.00    -0.359 N 
HETATM    9  C1  UNL     1      85.181 136.402 107.706  1.00  0.00     0.170 C 
HETATM   10  C2  UNL     1      86.322 137.405 107.623  1.00  0.00     0.168 C 
HETATM   11  C3  UNL     1      86.516 142.964 102.478  1.00  0.00     0.149 C 
HETATM   12  C4  UNL     1      88.423 143.424 103.924  1.00  0.00     0.149 C 
HETATM   13  C5  UNL     1      86.606 138.769 105.473  1.00  0.00     0.042 A 
HETATM   14  C6  UNL     1      85.147 135.629 108.964  1.00  0.00     0.156 C 
HETATM   15  C7  UNL     1      87.090 141.270 104.213  1.00  0.00     0.069 A 
HETATM   16  C8  UNL     1      85.909 144.269 103.055  1.00  0.00     0.187 C 
HETATM   17  C9  UNL     1      87.903 144.832 104.113  1.00  0.00     0.187 C 
HETATM   18  C10 UNL     1      86.147 136.257 105.628  1.00  0.00     0.368 C 
HETATM   19  C11 UNL     1      87.262 139.805 106.128  1.00  0.00     0.074 A 
HETATM   20  C12 UNL     1      86.202 138.995 104.196  1.00  0.00     0.032 A 
HETATM   21  C13 UNL     1      87.496 141.022 105.512  1.00  0.00     0.145 A 
HETATM   22  C14 UNL     1      86.446 140.233 103.583  1.00  0.00     0.035 A 
HETATM   23  C15 UNL     1      86.768 133.782 108.498  1.00  0.00     0.213 C 
HETATM   24  C16 UNL     1      87.994 133.041 108.948  1.00  0.00     0.117 C 
HETATM   25  H1  UNL     1      86.841 135.075 110.166  1.00  0.00     0.162 HD
ENDROOT
TORSDOF 4
ENDMDL
MODEL 6
REMARK VINA RESULT:      -7.7     16.601     17.784
REMARK  0 active torsions:
REMARK  status: ('A' for Active; 'I' for Inactive)
REMARK       I    between atoms: N1_6  and  C5_13 
REMARK       I    between atoms: N2_7  and  C7_15 
REMARK       I    between atoms: N3_8  and  C6_14 
REMARK       I    between atoms: N3_8  and  C15_23 
REMARK       I    between atoms: C1_9  and  C6_14 
ROOT
HETATM    1  F1  UNL     1      99.681 116.759  95.327  1.00  0.00    -0.204 F 
HETATM    2  O1  UNL     1     103.575 112.800  99.474  1.00  0.00    -0.295 OA
HETATM    3  O2  UNL     1     101.343 120.034  92.509  1.00  0.00    -0.388 OA
HETATM    4  O3  UNL     1     103.688 115.099 100.193  1.00  0.00    -0.238 OA
HETATM    5  O4  UNL     1     103.073 111.619 101.652  1.00  0.00    -0.274 OA
HETATM    6  N1  UNL     1     102.428 114.362  98.340  1.00  0.00    -0.291 N 
HETATM    7  N2  UNL     1     101.590 118.806  94.933  1.00  0.00    -0.374 N 
HETATM    8  N3  UNL     1     101.566 110.728 100.100  1.00  0.00    -0.359 N 
HETATM    9  C1  UNL     1     102.827 112.131  98.507  1.00  0.00     0.170 C 
HETATM   10  C2  UNL     1     101.689 113.087  98.185  1.00  0.00     0.168 C 
HETATM   11  C3  UNL     1     102.729 119.529  94.332  1.00  0.00     0.149 C 
HETATM   12  C4  UNL     1     100.310 119.366  94.578  1.00  0.00     0.149 C 
HETATM   13  C5  UNL     1     102.259 115.491  97.501  1.00  0.00     0.042 A 
HETATM   14  C6  UNL     1     102.384 110.792  98.947  1.00  0.00     0.156 C 
HETATM   15  C7  UNL     1     101.830 117.705  95.773  1.00  0.00     0.069 A 
HETATM   16  C8  UNL     1     102.476 119.312  92.818  1.00  0.00     0.187 C 
HETATM   17  C9  UNL     1     100.175 119.541  93.081  1.00  0.00     0.187 C 
HETATM   18  C10 UNL     1     103.291 114.177  99.439  1.00  0.00     0.368 C 
HETATM   19  C11 UNL     1     101.072 115.652  96.797  1.00  0.00     0.074 A 
HETATM   20  C12 UNL     1     103.217 116.439  97.335  1.00  0.00     0.032 A 
HETATM   21  C13 UNL     1     100.866 116.732  95.956  1.00  0.00     0.145 A 
HETATM   22  C14 UNL     1     102.996 117.529  96.480  1.00  0.00     0.035 A 
HETATM   23  C15 UNL     1     101.959 111.147 101.386  1.00  0.00     0.213 C 
HETATM   24  C16 UNL     1     100.988 111.023 102.525  1.00  0.00     0.117 C 
HETATM   25  H1  UNL     1     100.574 110.335 100.014  1.00  0.00     0.162 HD
ENDROOT
TORSDOF 4
ENDMDL
MODEL 7
REMARK VINA RESULT:      -7.7      1.968      2.840
REMARK  0 active torsions:
REMARK  status: ('A' for Active; 'I' for Inactive)
REMARK       I    between atoms: N1_6  and  C5_13 
REMARK       I    between atoms: N2_7  and  C7_15 
REMARK       I    between atoms: N3_8  and  C6_14 
REMARK       I    between atoms: N3_8  and  C15_23 
REMARK       I    between atoms: C1_9  and  C6_14 
ROOT
HETATM    1  F1  UNL     1     107.295 128.909  85.511  1.00  0.00    -0.204 F 
HETATM    2  O1  UNL     1     104.725 123.118  82.703  1.00  0.00    -0.295 OA
HETATM    3  O2  UNL     1     109.810 129.050  89.395  1.00  0.00    -0.388 OA
HETATM    4  O3  UNL     1     103.674 123.532  84.834  1.00  0.00    -0.238 OA
HETATM    5  O4  UNL     1     102.715 122.696  81.228  1.00  0.00    -0.274 OA
HETATM    6  N1  UNL     1     105.332 124.922  83.894  1.00  0.00    -0.291 N 
HETATM    7  N2  UNL     1     107.721 127.863  88.102  1.00  0.00    -0.374 N 
HETATM    8  N3  UNL     1     104.058 124.194  80.034  1.00  0.00    -0.359 N 
HETATM    9  C1  UNL     1     105.618 123.841  81.915  1.00  0.00     0.170 C 
HETATM   10  C2  UNL     1     105.544 125.257  82.466  1.00  0.00     0.168 C 
HETATM   11  C3  UNL     1     108.410 127.177  89.213  1.00  0.00     0.149 C 
HETATM   12  C4  UNL     1     107.715 129.299  88.236  1.00  0.00     0.149 C 
HETATM   13  C5  UNL     1     105.922 125.622  84.975  1.00  0.00     0.042 A 
HETATM   14  C6  UNL     1     105.325 123.739  80.471  1.00  0.00     0.156 C 
HETATM   15  C7  UNL     1     107.140 127.105  87.071  1.00  0.00     0.069 A 
HETATM   16  C8  UNL     1     109.858 127.712  89.064  1.00  0.00     0.187 C 
HETATM   17  C9  UNL     1     109.105 129.839  88.493  1.00  0.00     0.187 C 
HETATM   18  C10 UNL     1     104.474 123.804  83.906  1.00  0.00     0.368 C 
HETATM   19  C11 UNL     1     106.337 126.936  84.797  1.00  0.00     0.074 A 
HETATM   20  C12 UNL     1     106.119 125.065  86.197  1.00  0.00     0.032 A 
HETATM   21  C13 UNL     1     106.930 127.656  85.820  1.00  0.00     0.145 A 
HETATM   22  C14 UNL     1     106.720 125.805  87.226  1.00  0.00     0.035 A 
HETATM   23  C15 UNL     1     102.826 123.645  80.441  1.00  0.00     0.213 C 
HETATM   24  C16 UNL     1     101.552 124.225  79.898  1.00  0.00     0.117 C 
HETATM   25  H1  UNL     1     104.008 125.011  79.345  1.00  0.00     0.162 HD
ENDROOT
TORSDOF 4
ENDMDL
MODEL 8
REMARK VINA RESULT:      -7.6     31.612     32.769
REMARK  0 active torsions:
REMARK  status: ('A' for Active; 'I' for Inactive)
REMARK       I    between atoms: N1_6  and  C5_13 
REMARK       I    between atoms: N2_7  and  C7_15 
REMARK       I    between atoms: N3_8  and  C6_14 
REMARK       I    between atoms: N3_8  and  C15_23 
REMARK       I    between atoms: C1_9  and  C6_14 
ROOT
HETATM    1  F1  UNL     1      85.506 139.068 104.235  1.00  0.00    -0.204 F 
HETATM    2  O1  UNL     1      87.978 135.634 109.723  1.00  0.00    -0.295 OA
HETATM    3  O2  UNL     1      87.136 143.132 102.731  1.00  0.00    -0.388 OA
HETATM    4  O3  UNL     1      86.969 137.703 110.439  1.00  0.00    -0.238 OA
HETATM    5  O4  UNL     1      86.909 133.982 111.312  1.00  0.00    -0.274 OA
HETATM    6  N1  UNL     1      87.078 137.003 108.189  1.00  0.00    -0.291 N 
HETATM    7  N2  UNL     1      86.574 141.596 104.915  1.00  0.00    -0.374 N 
HETATM    8  N3  UNL     1      86.723 133.013 109.190  1.00  0.00    -0.359 N 
HETATM    9  C1  UNL     1      88.054 134.974 108.498  1.00  0.00     0.170 C 
HETATM   10  C2  UNL     1      86.970 135.626 107.653  1.00  0.00     0.168 C 
HETATM   11  C3  UNL     1      87.552 142.699 104.998  1.00  0.00     0.149 C 
HETATM   12  C4  UNL     1      85.521 141.840 103.962  1.00  0.00     0.149 C 
HETATM   13  C5  UNL     1      86.973 138.177 107.402  1.00  0.00     0.042 A 
HETATM   14  C6  UNL     1      87.922 133.509 108.623  1.00  0.00     0.156 C 
HETATM   15  C7  UNL     1      86.728 140.468 105.739  1.00  0.00     0.069 A 
HETATM   16  C8  UNL     1      88.146 142.703 103.566  1.00  0.00     0.187 C 
HETATM   17  C9  UNL     1      86.074 142.242 102.612  1.00  0.00     0.187 C 
HETATM   18  C10 UNL     1      87.311 136.863 109.572  1.00  0.00     0.368 C 
HETATM   19  C11 UNL     1      86.293 138.134 106.191  1.00  0.00     0.074 A 
HETATM   20  C12 UNL     1      87.520 139.364 107.769  1.00  0.00     0.032 A 
HETATM   21  C13 UNL     1      86.175 139.251 105.383  1.00  0.00     0.145 A 
HETATM   22  C14 UNL     1      87.394 140.490 106.942  1.00  0.00     0.035 A 
HETATM   23  C15 UNL     1      86.287 133.281 110.503  1.00  0.00     0.213 C 
HETATM   24  C16 UNL     1      84.991 132.689 110.978  1.00  0.00     0.117 C 
HETATM   25  H1  UNL     1      86.088 132.387 108.599  1.00  0.00     0.162 HD
ENDROOT
TORSDOF 4
ENDMDL
MODEL 9
REMARK VINA RESULT:      -7.5     24.826     29.898
REMARK  0 active torsions:
REMARK  status: ('A' for Active; 'I' for Inactive)
REMARK       I    between atoms: N1_6  and  C5_13 
REMARK       I    between atoms: N2_7  and  C7_15 
REMARK       I    between atoms: N3_8  and  C6_14 
REMARK       I    between atoms: N3_8  and  C15_23 
REMARK       I    between atoms: C1_9  and  C6_14 
ROOT
HETATM    1  F1  UNL     1     107.677 129.856 110.853  1.00  0.00    -0.204 F 
HETATM    2  O1  UNL     1     104.978 126.395 116.216  1.00  0.00    -0.295 OA
HETATM    3  O2  UNL     1     108.967 127.910 106.856  1.00  0.00    -0.388 OA
HETATM    4  O3  UNL     1     107.262 125.708 115.864  1.00  0.00    -0.238 OA
HETATM    5  O4  UNL     1     104.972 126.856 118.702  1.00  0.00    -0.274 OA
HETATM    6  N1  UNL     1     106.156 127.320 114.544  1.00  0.00    -0.291 N 
HETATM    7  N2  UNL     1     108.838 127.623 109.567  1.00  0.00    -0.374 N 
HETATM    8  N3  UNL     1     103.917 128.702 117.726  1.00  0.00    -0.359 N 
HETATM    9  C1  UNL     1     104.173 127.385 115.654  1.00  0.00     0.170 C 
HETATM   10  C2  UNL     1     105.157 128.326 114.974  1.00  0.00     0.168 C 
HETATM   11  C3  UNL     1     108.942 126.443 108.685  1.00  0.00     0.149 C 
HETATM   12  C4  UNL     1     109.495 128.790 109.033  1.00  0.00     0.149 C 
HETATM   13  C5  UNL     1     106.837 127.351 113.303  1.00  0.00     0.042 A 
HETATM   14  C6  UNL     1     103.293 128.042 116.641  1.00  0.00     0.156 C 
HETATM   15  C7  UNL     1     108.164 127.517 110.795  1.00  0.00     0.069 A 
HETATM   16  C8  UNL     1     108.184 126.926 107.422  1.00  0.00     0.187 C 
HETATM   17  C9  UNL     1     109.059 129.073 107.612  1.00  0.00     0.187 C 
HETATM   18  C10 UNL     1     106.239 126.383 115.594  1.00  0.00     0.368 C 
HETATM   19  C11 UNL     1     106.978 128.557 112.626  1.00  0.00     0.074 A 
HETATM   20  C12 UNL     1     107.363 126.243 112.719  1.00  0.00     0.032 A 
HETATM   21  C13 UNL     1     107.624 128.634 111.405  1.00  0.00     0.145 A 
HETATM   22  C14 UNL     1     108.017 126.335 111.481  1.00  0.00     0.035 A 
HETATM   23  C15 UNL     1     104.722 128.069 118.693  1.00  0.00     0.213 C 
HETATM   24  C16 UNL     1     105.324 128.891 119.795  1.00  0.00     0.117 C 
HETATM   25  H1  UNL     1     103.781 129.757 117.841  1.00  0.00     0.162 HD
ENDROOT
TORSDOF 4
ENDMDL
