MODEL 1
REMARK VINA RESULT:      -8.2      0.000      0.000
REMARK  0 active torsions:
REMARK  status: ('A' for Active; 'I' for Inactive)
REMARK       I    between atoms: N1_6  and  C5_13 
REMARK       I    between atoms: N2_7  and  C7_15 
REMARK       I    between atoms: N3_8  and  C6_14 
REMARK       I    between atoms: N3_8  and  C15_23 
REMARK       I    between atoms: C1_9  and  C6_14 
ROOT
HETATM    1  F1  UNL     1     104.300 127.710  81.047  1.00  0.00    -0.204 F 
HETATM    2  O1  UNL     1     108.062 128.872  86.698  1.00  0.00    -0.295 OA
HETATM    3  O2  UNL     1     102.328 122.966  80.720  1.00  0.00    -0.388 OA
HETATM    4  O3  UNL     1     108.342 128.744  84.312  1.00  0.00    -0.238 OA
HETATM    5  O4  UNL     1     104.782 129.112  89.270  1.00  0.00    -0.274 OA
HETATM    6  N1  UNL     1     106.378 127.969  85.414  1.00  0.00    -0.291 N 
HETATM    7  N2  UNL     1     103.118 125.297  81.639  1.00  0.00    -0.374 N 
HETATM    8  N3  UNL     1     107.051 129.227  89.603  1.00  0.00    -0.359 N 
HETATM    9  C1  UNL     1     107.294 127.929  87.477  1.00  0.00     0.170 C 
HETATM   10  C2  UNL     1     105.957 128.158  86.837  1.00  0.00     0.168 C 
HETATM   11  C3  UNL     1     103.672 124.858  80.376  1.00  0.00     0.149 C 
HETATM   12  C4  UNL     1     101.720 124.993  81.862  1.00  0.00     0.149 C 
HETATM   13  C5  UNL     1     105.577 127.341  84.454  1.00  0.00     0.042 A 
HETATM   14  C6  UNL     1     107.436 128.061  88.926  1.00  0.00     0.156 C 
HETATM   15  C7  UNL     1     103.936 125.982  82.571  1.00  0.00     0.069 A 
HETATM   16  C8  UNL     1     103.529 123.376  80.177  1.00  0.00     0.187 C 
HETATM   17  C9  UNL     1     101.364 123.947  80.792  1.00  0.00     0.187 C 
HETATM   18  C10 UNL     1     107.678 128.555  85.369  1.00  0.00     0.368 C 
HETATM   19  C11 UNL     1     105.332 127.855  83.196  1.00  0.00     0.074 A 
HETATM   20  C12 UNL     1     104.966 126.113  84.740  1.00  0.00     0.032 A 
HETATM   21  C13 UNL     1     104.535 127.194  82.284  1.00  0.00     0.145 A 
HETATM   22  C14 UNL     1     104.172 125.455  83.828  1.00  0.00     0.035 A 
HETATM   23  C15 UNL     1     105.745 129.740  89.759  1.00  0.00     0.213 C 
HETATM   24  C16 UNL     1     105.510 131.038  90.509  1.00  0.00     0.117 C 
HETATM   25  H1  UNL     1     107.825 129.812  90.065  1.00  0.00     0.162 HD
ENDROOT
TORSDOF 4
ENDMDL
MODEL 2
REMARK VINA RESULT:      -8.0      2.202      2.666
REMARK  0 active torsions:
REMARK  status: ('A' for Active; 'I' for Inactive)
REMARK       I    between atoms: N1_6  and  C5_13 
REMARK       I    between atoms: N2_7  and  C7_15 
REMARK       I    between atoms: N3_8  and  C6_14 
REMARK       I    between atoms: N3_8  and  C15_23 
REMARK       I    between atoms: C1_9  and  C6_14 
ROOT
HETATM    1  F1  UNL     1     107.863 127.822  81.725  1.00  0.00    -0.204 F 
HETATM    2  O1  UNL     1     108.873 129.192  88.399  1.00  0.00    -0.295 OA
HETATM    3  O2  UNL     1     103.434 125.418  80.675  1.00  0.00    -0.388 OA
HETATM    4  O3  UNL     1     109.829 127.851  86.644  1.00  0.00    -0.238 OA
HETATM    5  O4  UNL     1     106.123 132.330  88.541  1.00  0.00    -0.274 OA
HETATM    6  N1  UNL     1     107.692 128.885  86.447  1.00  0.00    -0.291 N 
HETATM    7  N2  UNL     1     105.224 127.046  81.699  1.00  0.00    -0.374 N 
HETATM    8  N3  UNL     1     107.448 131.330  90.127  1.00  0.00    -0.359 N 
HETATM    9  C1  UNL     1     107.456 129.308  88.652  1.00  0.00     0.170 C 
HETATM   10  C2  UNL     1     107.049 129.901  87.336  1.00  0.00     0.168 C 
HETATM   11  C3  UNL     1     105.711 125.855  81.035  1.00  0.00     0.149 C 
HETATM   12  C4  UNL     1     104.084 127.697  81.085  1.00  0.00     0.149 C 
HETATM   13  C5  UNL     1     107.117 128.438  85.252  1.00  0.00     0.042 A 
HETATM   14  C6  UNL     1     107.102 129.990  89.895  1.00  0.00     0.156 C 
HETATM   15  C7  UNL     1     105.859 127.511  82.876  1.00  0.00     0.069 A 
HETATM   16  C8  UNL     1     104.647 124.802  80.905  1.00  0.00     0.187 C 
HETATM   17  C9  UNL     1     103.523 126.665  80.094  1.00  0.00     0.187 C 
HETATM   18  C10 UNL     1     108.907 128.567  87.125  1.00  0.00     0.368 C 
HETATM   19  C11 UNL     1     107.797 128.352  84.053  1.00  0.00     0.074 A 
HETATM   20  C12 UNL     1     105.774 128.041  85.221  1.00  0.00     0.032 A 
HETATM   21  C13 UNL     1     107.184 127.903  82.902  1.00  0.00     0.145 A 
HETATM   22  C14 UNL     1     105.165 127.592  84.071  1.00  0.00     0.035 A 
HETATM   23  C15 UNL     1     106.968 132.472  89.451  1.00  0.00     0.213 C 
HETATM   24  C16 UNL     1     107.471 133.855  89.819  1.00  0.00     0.117 C 
HETATM   25  H1  UNL     1     108.159 131.531  90.908  1.00  0.00     0.162 HD
ENDROOT
TORSDOF 4
ENDMDL
MODEL 3
REMARK VINA RESULT:      -7.9     30.114     31.983
REMARK  0 active torsions:
REMARK  status: ('A' for Active; 'I' for Inactive)
REMARK       I    between atoms: N1_6  and  C5_13 
REMARK       I    between atoms: N2_7  and  C7_15 
REMARK       I    between atoms: N3_8  and  C6_14 
REMARK       I    between atoms: N3_8  and  C15_23 
REMARK       I    between atoms: C1_9  and  C6_14 
ROOT
HETATM    1  F1  UNL     1      85.911 138.910 109.694  1.00  0.00    -0.204 F 
HETATM    2  O1  UNL     1      84.442 142.871 104.254  1.00  0.00    -0.295 OA
HETATM    3  O2  UNL     1      86.029 133.860 108.702  1.00  0.00    -0.388 OA
HETATM    4  O3  UNL     1      83.496 142.266 106.382  1.00  0.00    -0.238 OA
HETATM    5  O4  UNL     1      88.187 142.421 102.462  1.00  0.00    -0.274 OA
HETATM    6  N1  UNL     1      85.314 141.076 105.404  1.00  0.00    -0.291 N 
HETATM    7  N2  UNL     1      86.339 136.462 108.514  1.00  0.00    -0.374 N 
HETATM    8  N3  UNL     1      86.267 143.515 101.837  1.00  0.00    -0.359 N 
HETATM    9  C1  UNL     1      85.036 141.930 103.332  1.00  0.00     0.170 C 
HETATM   10  C2  UNL     1      86.145 141.435 104.214  1.00  0.00     0.168 C 
HETATM   11  C3  UNL     1      85.349 135.977 109.452  1.00  0.00     0.149 C 
HETATM   12  C4  UNL     1      87.562 135.691 108.424  1.00  0.00     0.149 C 
HETATM   13  C5  UNL     1      85.566 139.960 106.208  1.00  0.00     0.042 A 
HETATM   14  C6  UNL     1      85.348 142.470 102.011  1.00  0.00     0.156 C 
HETATM   15  C7  UNL     1      86.083 137.629 107.753  1.00  0.00     0.069 A 
HETATM   16  C8  UNL     1      84.932 134.564 109.158  1.00  0.00     0.187 C 
HETATM   17  C9  UNL     1      87.245 134.357 109.118  1.00  0.00     0.187 C 
HETATM   18  C10 UNL     1      84.321 142.102 105.441  1.00  0.00     0.368 C 
HETATM   19  C11 UNL     1      85.614 139.995 107.588  1.00  0.00     0.074 A 
HETATM   20  C12 UNL     1      85.789 138.706 105.623  1.00  0.00     0.032 A 
HETATM   21  C13 UNL     1      85.866 138.864 108.335  1.00  0.00     0.145 A 
HETATM   22  C14 UNL     1      86.039 137.578 106.371  1.00  0.00     0.035 A 
HETATM   23  C15 UNL     1      87.659 143.484 102.070  1.00  0.00     0.213 C 
HETATM   24  C16 UNL     1      88.506 144.723 101.850  1.00  0.00     0.117 C 
HETATM   25  H1  UNL     1      85.888 144.457 101.485  1.00  0.00     0.162 HD
ENDROOT
TORSDOF 4
ENDMDL
MODEL 4
REMARK VINA RESULT:      -7.9      2.344      2.753
REMARK  0 active torsions:
REMARK  status: ('A' for Active; 'I' for Inactive)
REMARK       I    between atoms: N1_6  and  C5_13 
REMARK       I    between atoms: N2_7  and  C7_15 
REMARK       I    between atoms: N3_8  and  C6_14 
REMARK       I    between atoms: N3_8  and  C15_23 
REMARK       I    between atoms: C1_9  and  C6_14 
ROOT
HETATM    1  F1  UNL     1     106.873 129.358  82.708  1.00  0.00    -0.204 F 
HETATM    2  O1  UNL     1     107.348 127.690  89.373  1.00  0.00    -0.295 OA
HETATM    3  O2  UNL     1     103.978 126.162  79.898  1.00  0.00    -0.388 OA
HETATM    4  O3  UNL     1     108.755 127.864  87.429  1.00  0.00    -0.238 OA
HETATM    5  O4  UNL     1     103.482 128.944  90.333  1.00  0.00    -0.274 OA
HETATM    6  N1  UNL     1     106.376 127.887  87.295  1.00  0.00    -0.291 N 
HETATM    7  N2  UNL     1     104.869 127.682  81.846  1.00  0.00    -0.374 N 
HETATM    8  N3  UNL     1     105.161 127.958  91.550  1.00  0.00    -0.359 N 
HETATM    9  C1  UNL     1     106.039 127.080  89.377  1.00  0.00     0.170 C 
HETATM   10  C2  UNL     1     105.370 127.998  88.396  1.00  0.00     0.168 C 
HETATM   11  C3  UNL     1     105.822 127.266  80.838  1.00  0.00     0.149 C 
HETATM   12  C4  UNL     1     103.541 128.013  81.369  1.00  0.00     0.149 C 
HETATM   13  C5  UNL     1     106.032 127.867  85.940  1.00  0.00     0.042 A 
HETATM   14  C6  UNL     1     105.451 126.881  90.699  1.00  0.00     0.156 C 
HETATM   15  C7  UNL     1     105.259 127.750  83.205  1.00  0.00     0.069 A 
HETATM   16  C8  UNL     1     105.344 126.070  80.065  1.00  0.00     0.187 C 
HETATM   17  C9  UNL     1     103.478 127.445  79.942  1.00  0.00     0.187 C 
HETATM   18  C10 UNL     1     107.623 127.817  87.987  1.00  0.00     0.368 C 
HETATM   19  C11 UNL     1     106.642 128.645  84.975  1.00  0.00     0.074 A 
HETATM   20  C12 UNL     1     105.012 127.021  85.484  1.00  0.00     0.032 A 
HETATM   21  C13 UNL     1     106.265 128.587  83.650  1.00  0.00     0.145 A 
HETATM   22  C14 UNL     1     104.638 126.965  84.160  1.00  0.00     0.035 A 
HETATM   23  C15 UNL     1     104.199 128.972  91.356  1.00  0.00     0.213 C 
HETATM   24  C16 UNL     1     104.034 130.083  92.376  1.00  0.00     0.117 C 
HETATM   25  H1  UNL     1     105.727 128.038  92.460  1.00  0.00     0.162 HD
ENDROOT
TORSDOF 4
ENDMDL
MODEL 5
REMARK VINA RESULT:      -7.8     20.199     22.681
REMARK  0 active torsions:
REMARK  status: ('A' for Active; 'I' for Inactive)
REMARK       I    between atoms: N1_6  and  C5_13 
REMARK       I    between atoms: N2_7  and  C7_15 
REMARK       I    between atoms: N3_8  and  C6_14 
REMARK       I    between atoms: N3_8  and  C15_23 
REMARK       I    between atoms: C1_9  and  C6_14 
ROOT
HETATM    1  F1  UNL     1      92.204 120.150 102.335  1.00  0.00    -0.204 F 
HETATM    2  O1  UNL     1      89.048 117.663  96.741  1.00  0.00    -0.295 OA
HETATM    3  O2  UNL     1      96.484 117.628 103.682  1.00  0.00    -0.388 OA
HETATM    4  O3  UNL     1      88.651 117.920  99.100  1.00  0.00    -0.238 OA
HETATM    5  O4  UNL     1      91.846 119.189  94.043  1.00  0.00    -0.274 OA
HETATM    6  N1  UNL     1      90.806 118.206  98.125  1.00  0.00    -0.291 N 
HETATM    7  N2  UNL     1      94.604 118.806 102.276  1.00  0.00    -0.374 N 
HETATM    8  N3  UNL     1      89.965 117.897  93.792  1.00  0.00    -0.359 N 
HETATM    9  C1  UNL     1      90.291 117.196  96.172  1.00  0.00     0.170 C 
HETATM   10  C2  UNL     1      91.185 118.288  96.681  1.00  0.00     0.168 C 
HETATM   11  C3  UNL     1      94.275 118.415 103.631  1.00  0.00     0.149 C 
HETATM   12  C4  UNL     1      95.940 119.327 102.070  1.00  0.00     0.149 C 
HETATM   13  C5  UNL     1      91.719 118.382  99.170  1.00  0.00     0.042 A 
HETATM   14  C6  UNL     1      90.247 116.904  94.741  1.00  0.00     0.156 C 
HETATM   15  C7  UNL     1      93.641 118.671 101.246  1.00  0.00     0.069 A 
HETATM   16  C8  UNL     1      95.217 117.375 104.167  1.00  0.00     0.187 C 
HETATM   17  C9  UNL     1      96.718 118.942 103.339  1.00  0.00     0.187 C 
HETATM   18  C10 UNL     1      89.407 117.925  98.089  1.00  0.00     0.368 C 
HETATM   19  C11 UNL     1      91.498 119.201 100.260  1.00  0.00     0.074 A 
HETATM   20  C12 UNL     1      92.947 117.707  99.155  1.00  0.00     0.032 A 
HETATM   21  C13 UNL     1      92.432 119.340 101.265  1.00  0.00     0.145 A 
HETATM   22  C14 UNL     1      93.877 117.847 100.160  1.00  0.00     0.035 A 
HETATM   23  C15 UNL     1      90.752 119.021  93.462  1.00  0.00     0.213 C 
HETATM   24  C16 UNL     1      90.279 120.015  92.418  1.00  0.00     0.117 C 
HETATM   25  H1  UNL     1      89.046 117.809  93.240  1.00  0.00     0.162 HD
ENDROOT
TORSDOF 4
ENDMDL
MODEL 6
REMARK VINA RESULT:      -7.8      2.890      4.289
REMARK  0 active torsions:
REMARK  status: ('A' for Active; 'I' for Inactive)
REMARK       I    between atoms: N1_6  and  C5_13 
REMARK       I    between atoms: N2_7  and  C7_15 
REMARK       I    between atoms: N3_8  and  C6_14 
REMARK       I    between atoms: N3_8  and  C15_23 
REMARK       I    between atoms: C1_9  and  C6_14 
ROOT
HETATM    1  F1  UNL     1     104.532 126.296  84.724  1.00  0.00    -0.204 F 
HETATM    2  O1  UNL     1     107.277 130.509  89.430  1.00  0.00    -0.295 OA
HETATM    3  O2  UNL     1     104.688 128.079  79.898  1.00  0.00    -0.388 OA
HETATM    4  O3  UNL     1     105.141 129.571  88.843  1.00  0.00    -0.238 OA
HETATM    5  O4  UNL     1     111.233 129.734  88.342  1.00  0.00    -0.274 OA
HETATM    6  N1  UNL     1     107.021 129.488  87.383  1.00  0.00    -0.291 N 
HETATM    7  N2  UNL     1     105.334 127.475  82.371  1.00  0.00    -0.374 N 
HETATM    8  N3  UNL     1     110.275 131.133  89.890  1.00  0.00    -0.359 N 
HETATM    9  C1  UNL     1     108.210 131.064  88.478  1.00  0.00     0.170 C 
HETATM   10  C2  UNL     1     108.450 129.827  87.664  1.00  0.00     0.168 C 
HETATM   11  C3  UNL     1     103.928 127.454  82.028  1.00  0.00     0.149 C 
HETATM   12  C4  UNL     1     106.245 126.976  81.361  1.00  0.00     0.149 C 
HETATM   13  C5  UNL     1     106.584 128.959  86.164  1.00  0.00     0.042 A 
HETATM   14  C6  UNL     1     109.343 131.777  89.064  1.00  0.00     0.156 C 
HETATM   15  C7  UNL     1     105.747 127.962  83.635  1.00  0.00     0.069 A 
HETATM   16  C8  UNL     1     103.637 128.236  80.778  1.00  0.00     0.187 C 
HETATM   17  C9  UNL     1     105.414 126.920  80.069  1.00  0.00     0.187 C 
HETATM   18  C10 UNL     1     106.350 129.835  88.594  1.00  0.00     0.368 C 
HETATM   19  C11 UNL     1     105.754 127.861  86.051  1.00  0.00     0.074 A 
HETATM   20  C12 UNL     1     106.985 129.546  84.956  1.00  0.00     0.032 A 
HETATM   21  C13 UNL     1     105.350 127.379  84.823  1.00  0.00     0.145 A 
HETATM   22  C14 UNL     1     106.579 129.063  83.732  1.00  0.00     0.035 A 
HETATM   23  C15 UNL     1     111.193 130.123  89.529  1.00  0.00     0.213 C 
HETATM   24  C16 UNL     1     112.120 129.516  90.565  1.00  0.00     0.117 C 
HETATM   25  H1  UNL     1     110.311 131.428  90.923  1.00  0.00     0.162 HD
ENDROOT
TORSDOF 4
ENDMDL
MODEL 7
REMARK VINA RESULT:      -7.8      2.962      8.332
REMARK  0 active torsions:
REMARK  status: ('A' for Active; 'I' for Inactive)
REMARK       I    between atoms: N1_6  and  C5_13 
REMARK       I    between atoms: N2_7  and  C7_15 
REMARK       I    between atoms: N3_8  and  C6_14 
REMARK       I    between atoms: N3_8  and  C15_23 
REMARK       I    between atoms: C1_9  and  C6_14 
ROOT
HETATM    1  F1  UNL     1     106.822 127.214  87.991  1.00  0.00    -0.204 F 
HETATM    2  O1  UNL     1     104.978 125.550  81.567  1.00  0.00    -0.295 OA
HETATM    3  O2  UNL     1     109.120 131.798  88.444  1.00  0.00    -0.388 OA
HETATM    4  O3  UNL     1     106.488 124.805  83.284  1.00  0.00    -0.238 OA
HETATM    5  O4  UNL     1     101.730 128.171  81.436  1.00  0.00    -0.274 OA
HETATM    6  N1  UNL     1     105.388 126.916  83.374  1.00  0.00    -0.291 N 
HETATM    7  N2  UNL     1     107.490 129.869  87.718  1.00  0.00    -0.374 N 
HETATM    8  N3  UNL     1     102.656 126.739  79.898  1.00  0.00    -0.359 N 
HETATM    9  C1  UNL     1     104.785 126.933  81.198  1.00  0.00     0.170 C 
HETATM   10  C2  UNL     1     104.280 127.440  82.517  1.00  0.00     0.168 C 
HETATM   11  C3  UNL     1     108.748 129.484  88.324  1.00  0.00     0.149 C 
HETATM   12  C4  UNL     1     106.844 131.037  88.280  1.00  0.00     0.149 C 
HETATM   13  C5  UNL     1     105.903 127.612  84.473  1.00  0.00     0.042 A 
HETATM   14  C6  UNL     1     103.994 127.149  79.989  1.00  0.00     0.156 C 
HETATM   15  C7  UNL     1     106.961 129.113  86.644  1.00  0.00     0.069 A 
HETATM   16  C8  UNL     1     109.764 130.589  88.273  1.00  0.00     0.187 C 
HETATM   17  C9  UNL     1     107.927 131.722  89.130  1.00  0.00     0.187 C 
HETATM   18  C10 UNL     1     105.701 125.654  82.783  1.00  0.00     0.368 C 
HETATM   19  C11 UNL     1     106.110 127.049  85.717  1.00  0.00     0.074 A 
HETATM   20  C12 UNL     1     106.247 128.965  84.352  1.00  0.00     0.032 A 
HETATM   21  C13 UNL     1     106.622 127.779  86.768  1.00  0.00     0.145 A 
HETATM   22  C14 UNL     1     106.760 129.691  85.403  1.00  0.00     0.035 A 
HETATM   23  C15 UNL     1     101.552 127.241  80.620  1.00  0.00     0.213 C 
HETATM   24  C16 UNL     1     100.165 126.661  80.411  1.00  0.00     0.117 C 
HETATM   25  H1  UNL     1     102.423 125.953  79.202  1.00  0.00     0.162 HD
ENDROOT
TORSDOF 4
ENDMDL
MODEL 8
REMARK VINA RESULT:      -7.8     12.092     15.826
REMARK  0 active torsions:
REMARK  status: ('A' for Active; 'I' for Inactive)
REMARK       I    between atoms: N1_6  and  C5_13 
REMARK       I    between atoms: N2_7  and  C7_15 
REMARK       I    between atoms: N3_8  and  C6_14 
REMARK       I    between atoms: N3_8  and  C15_23 
REMARK       I    between atoms: C1_9  and  C6_14 
ROOT
HETATM    1  F1  UNL     1     112.043 135.345  98.545  1.00  0.00    -0.204 F 
HETATM    2  O1  UNL     1     112.104 135.645  91.664  1.00  0.00    -0.295 OA
HETATM    3  O2  UNL     1     107.928 132.993 100.553  1.00  0.00    -0.388 OA
HETATM    4  O3  UNL     1     111.979 137.126  93.556  1.00  0.00    -0.238 OA
HETATM    5  O4  UNL     1     113.060 131.614  91.138  1.00  0.00    -0.274 OA
HETATM    6  N1  UNL     1     111.672 134.772  93.750  1.00  0.00    -0.291 N 
HETATM    7  N2  UNL     1     109.973 133.596  99.018  1.00  0.00    -0.374 N 
HETATM    8  N3  UNL     1     112.614 133.327  89.675  1.00  0.00    -0.359 N 
HETATM    9  C1  UNL     1     111.354 134.417  91.543  1.00  0.00     0.170 C 
HETATM   10  C2  UNL     1     111.918 133.701  92.735  1.00  0.00     0.168 C 
HETATM   11  C3  UNL     1     109.448 134.644  99.868  1.00  0.00     0.149 C 
HETATM   12  C4  UNL     1     110.010 132.268  99.593  1.00  0.00     0.149 C 
HETATM   13  C5  UNL     1     111.283 134.506  95.067  1.00  0.00     0.042 A 
HETATM   14  C6  UNL     1     111.408 133.784  90.227  1.00  0.00     0.156 C 
HETATM   15  C7  UNL     1     110.414 133.902  97.707  1.00  0.00     0.069 A 
HETATM   16  C8  UNL     1     108.051 134.351 100.334  1.00  0.00     0.187 C 
HETATM   17  C9  UNL     1     109.112 132.348 100.838  1.00  0.00     0.187 C 
HETATM   18  C10 UNL     1     111.927 135.979  93.032  1.00  0.00     0.368 C 
HETATM   19  C11 UNL     1     111.875 135.074  96.178  1.00  0.00     0.074 A 
HETATM   20  C12 UNL     1     110.232 133.616  95.326  1.00  0.00     0.032 A 
HETATM   21  C13 UNL     1     111.452 134.779  97.457  1.00  0.00     0.145 A 
HETATM   22  C14 UNL     1     109.811 133.324  96.604  1.00  0.00     0.035 A 
HETATM   23  C15 UNL     1     113.423 132.266  90.135  1.00  0.00     0.213 C 
HETATM   24  C16 UNL     1     114.718 131.919  89.425  1.00  0.00     0.117 C 
HETATM   25  H1  UNL     1     112.981 133.830  88.799  1.00  0.00     0.162 HD
ENDROOT
TORSDOF 4
ENDMDL
MODEL 9
REMARK VINA RESULT:      -7.7      2.769      3.997
REMARK  0 active torsions:
REMARK  status: ('A' for Active; 'I' for Inactive)
REMARK       I    between atoms: N1_6  and  C5_13 
REMARK       I    between atoms: N2_7  and  C7_15 
REMARK       I    between atoms: N3_8  and  C6_14 
REMARK       I    between atoms: N3_8  and  C15_23 
REMARK       I    between atoms: C1_9  and  C6_14 
ROOT
HETATM    1  F1  UNL     1     103.610 125.146  84.122  1.00  0.00    -0.204 F 
HETATM    2  O1  UNL     1     105.941 127.637  90.105  1.00  0.00    -0.295 OA
HETATM    3  O2  UNL     1     104.194 128.313  80.106  1.00  0.00    -0.388 OA
HETATM    4  O3  UNL     1     103.862 126.988  89.083  1.00  0.00    -0.238 OA
HETATM    5  O4  UNL     1     109.976 127.116  89.163  1.00  0.00    -0.274 OA
HETATM    6  N1  UNL     1     105.864 127.298  87.829  1.00  0.00    -0.291 N 
HETATM    7  N2  UNL     1     104.619 126.964  82.320  1.00  0.00    -0.374 N 
HETATM    8  N3  UNL     1     108.889 128.002  90.981  1.00  0.00    -0.359 N 
HETATM    9  C1  UNL     1     106.956 128.429  89.450  1.00  0.00     0.170 C 
HETATM   10  C2  UNL     1     107.263 127.493  88.319  1.00  0.00     0.168 C 
HETATM   11  C3  UNL     1     103.248 127.090  81.871  1.00  0.00     0.149 C 
HETATM   12  C4  UNL     1     105.613 126.770  81.284  1.00  0.00     0.149 C 
HETATM   13  C5  UNL     1     105.534 127.181  86.475  1.00  0.00     0.042 A 
HETATM   14  C6  UNL     1     108.035 128.896  90.318  1.00  0.00     0.156 C 
HETATM   15  C7  UNL     1     104.920 127.029  83.702  1.00  0.00     0.069 A 
HETATM   16  C8  UNL     1     103.070 128.224  80.902  1.00  0.00     0.187 C 
HETATM   17  C9  UNL     1     104.899 127.137  79.973  1.00  0.00     0.187 C 
HETATM   18  C10 UNL     1     105.089 127.279  89.028  1.00  0.00     0.368 C 
HETATM   19  C11 UNL     1     104.714 126.194  85.962  1.00  0.00     0.074 A 
HETATM   20  C12 UNL     1     106.041 128.096  85.543  1.00  0.00     0.032 A 
HETATM   21  C13 UNL     1     104.418 126.123  84.617  1.00  0.00     0.145 A 
HETATM   22  C14 UNL     1     105.743 128.023  84.201  1.00  0.00     0.035 A 
HETATM   23  C15 UNL     1     109.832 127.125  90.404  1.00  0.00     0.213 C 
HETATM   24  C16 UNL     1     110.663 126.203  91.277  1.00  0.00     0.117 C 
HETATM   25  H1  UNL     1     108.834 127.967  92.054  1.00  0.00     0.162 HD
ENDROOT
TORSDOF 4
ENDMDL
