REMARK  0 active torsions:
REMARK  status: ('A' for Active; 'I' for Inactive)
REMARK       I    between atoms: N1_6  and  C5_13 
REMARK       I    between atoms: N2_7  and  C7_15 
REMARK       I    between atoms: N3_8  and  C6_14 
REMARK       I    between atoms: N3_8  and  C15_23 
REMARK       I    between atoms: C1_9  and  C6_14 
ROOT
HETATM    1  F1  UNL     1      -2.664   2.566   0.405  1.00  0.00    -0.204 F 
HETATM    2  O1  UNL     1       3.316   0.553  -2.356  1.00  0.00    -0.295 OA
HETATM    3  O2  UNL     1      -6.117  -1.201   1.024  1.00  0.00    -0.388 OA
HETATM    4  O3  UNL     1       1.441   1.963  -2.889  1.00  0.00    -0.238 OA
HETATM    5  O4  UNL     1       4.693  -1.332   1.106  1.00  0.00    -0.274 OA
HETATM    6  N1  UNL     1       1.394   0.392  -1.099  1.00  0.00    -0.291 N 
HETATM    7  N2  UNL     1      -3.869   0.157   0.965  1.00  0.00    -0.374 N 
HETATM    8  N3  UNL     1       5.556  -1.109  -1.010  1.00  0.00    -0.359 N 
HETATM    9  C1  UNL     1       3.202  -0.771  -1.790  1.00  0.00     0.170 C 
HETATM   10  C2  UNL     1       2.517  -0.399  -0.508  1.00  0.00     0.168 C 
HETATM   11  C3  UNL     1      -4.980   0.677   0.196  1.00  0.00     0.149 C 
HETATM   12  C4  UNL     1      -4.200  -0.424   2.250  1.00  0.00     0.149 C 
HETATM   13  C5  UNL     1       0.092   0.376  -0.588  1.00  0.00     0.042 A 
HETATM   14  C6  UNL     1       4.445  -1.538  -1.751  1.00  0.00     0.156 C 
HETATM   15  C7  UNL     1      -2.552   0.237   0.450  1.00  0.00     0.069 A 
HETATM   16  C8  UNL     1      -6.023  -0.370  -0.074  1.00  0.00     0.187 C 
HETATM   17  C9  UNL     1      -5.723  -0.629   2.214  1.00  0.00     0.187 C 
HETATM   18  C10 UNL     1       2.003   1.068  -2.199  1.00  0.00     0.368 C 
HETATM   19  C11 UNL     1      -0.655   1.511  -0.340  1.00  0.00     0.074 A 
HETATM   20  C12 UNL     1      -0.536  -0.842  -0.295  1.00  0.00     0.032 A 
HETATM   21  C13 UNL     1      -1.937   1.441   0.164  1.00  0.00     0.145 A 
HETATM   22  C14 UNL     1      -1.816  -0.909   0.207  1.00  0.00     0.035 A 
HETATM   23  C15 UNL     1       5.665  -1.002   0.393  1.00  0.00     0.213 C 
HETATM   24  C16 UNL     1       6.944  -0.493   1.031  1.00  0.00     0.117 C 
HETATM   25  H1  UNL     1       6.437  -0.824  -1.556  1.00  0.00     0.162 HD
ENDROOT
TORSDOF 4
